packages/bdgd2opendss/bdgd2opendss-1.0.0.tar.gz/bdgd2opendss-1.0.0/tests/dss_models_output/sub__SE001/17_SE001_1/SegmentosBT_202312598_17_SE001_1_------1-----.dss
New "Line.SBT_35127" phases=4 bus1="BT662971.1.2.3.4" bus2="BT279361.1.2.3.4" linecode="74_4" length=0.045050000 units=km
New "Line.SBT_35128" phases=4 bus1="BT775601.1.2.3.4" bus2="ET17_6343.1.2.3.4" linecode="74_4" length=0.025460000 units=km
New "Line.SBT_35129" phases=4 bus1="BT807791.1.2.3.4" bus2="BT342561.1.2.3.4" linecode="74_4" length=0.022470000 units=km
New "Line.SBT_35130" phases=4 bus1="BT807801.1.2.3.4" bus2="BT279411.1.2.3.4" linecode="74_4" length=0.050560000 units=km
New "Line.SBT_35112" phases=4 bus1="BT219561.1.2.3.4" bus2="BT410801.1.2.3.4" linecode="74_4" length=0.009980000 units=km
New "Line.SBT_35113" phases=4 bus1="BT219571.1.2.3.4" bus2="BT219561.1.2.3.4" linecode="74_4" length=0.022260000 units=km
New "Line.SBT_35114" phases=4 bus1="BT272931.1.2.3.4" bus2="BT807801.1.2.3.4" linecode="74_4" length=0.034630000 units=km
New "Line.SBT_35115" phases=4 bus1="BT272952.1.2.3.4" bus2="BT410801.1.2.3.4" linecode="97_4" length=0.025060000 units=km
New "Line.SBT_35116" phases=4 bus1="BT279361.1.2.3.4" bus2="BT279371.1.2.3.4" linecode="74_4" length=0.012820000 units=km
New "Line.SBT_35117" phases=4 bus1="BT279371.1.2.3.4" bus2="BT279382.1.2.3.4" linecode="74_4" length=0.038670000 units=km
New "Line.SBT_35118" phases=4 bus1="BT279382.1.2.3.4" bus2="BT775601.1.2.3.4" linecode="74_4" length=0.016650000 units=km
New "Line.SBT_35119" phases=4 bus1="BT279402.1.2.3.4" bus2="BT775601.1.2.3.4" linecode="74_4" length=0.021330000 units=km
New "Line.SBT_35120" phases=4 bus1="BT279411.1.2.3.4" bus2="BT775601.1.2.3.4" linecode="74_4" length=0.005350000 units=km
New "Line.SBT_35121" phases=4 bus1="BT279432.1.2.3.4" bus2="BT807791.1.2.3.4" linecode="74_4" length=0.041530000 units=km
New "Line.SBT_35122" phases=4 bus1="BT329181.1.2.3.4" bus2="BT410801.1.2.3.4" linecode="97_4" length=0.006640000 units=km
New "Line.SBT_35123" phases=4 bus1="BT329182.1.2.3.4" bus2="BT219551.1.2.3.4" linecode="97_4" length=0.042720000 units=km
New "Line.SBT_35124" phases=4 bus1="BT342561.1.2.3.4" bus2="ET17_6343.1.2.3.4" linecode="74_4" length=0.022250000 units=km
New "Line.SBT_35126" phases=4 bus1="BT410801.1.2.3.4" bus2="BT272931.1.2.3.4" linecode="74_4" length=0.031580000 units=km
New "Line.SBT_34542" phases=2 bus1="BT802751.1.4" bus2="ET17_4332.1.4" linecode="62_2" length=0.046090000 units=km
New "Line.SBT_34499" phases=4 bus1="BT678501.1.2.3.4" bus2="BT802411.1.2.3.4" linecode="74_4" length=0.042960000 units=km
New "Line.SBT_34236" phases=4 bus1="BT798511.1.2.3.4" bus2="ET17_6214.1.2.3.4" linecode="74_4" length=0.043010000 units=km
New "Line.SBT_33870" phases=4 bus1="BT272892.1.2.3.4" bus2="BT621791.1.2.3.4" linecode="16_4" length=0.040660000 units=km
New "Line.SBT_33518" phases=2 bus1="BT268312.1.4" bus2="ET17_6097.1.4" linecode="62_2" length=0.097330000 units=km
New "Line.SBT_33520" phases=2 bus1="BT792151.1.4" bus2="ET17_6097.1.4" linecode="62_2" length=0.057470000 units=km
New "Line.SBT_33521" phases=2 bus1="BT792161.1.4" bus2="BT792151.1.4" linecode="62_2" length=0.038490000 units=km
New "Line.SBT_33522" phases=2 bus1="BT268322.1.4" bus2="BT268312.1.4" linecode="60_2" length=0.094580000 units=km
New "Line.SBT_33337" phases=4 bus1="BT791021.1.2.3.4" bus2="BT287652.1.2.3.4" linecode="73_4" length=0.019780000 units=km
New "Line.SBT_33338" phases=4 bus1="BT791031.1.2.3.4" bus2="BT791021.1.2.3.4" linecode="74_4" length=0.056320000 units=km
New "Line.SBT_33339" phases=4 bus1="BT791041.1.2.3.4" bus2="BT791031.1.2.3.4" linecode="74_4" length=0.043400000 units=km
New "Line.SBT_33341" phases=4 bus1="BT779611.1.2.3.4" bus2="BT779631.1.2.3.4" linecode="74_4" length=0.041710000 units=km
New "Line.SBT_33342" phases=4 bus1="BT779631.1.2.3.4" bus2="BT779651.1.2.3.4" linecode="74_4" length=0.040600000 units=km
New "Line.SBT_33343" phases=4 bus1="BT779651.1.2.3.4" bus2="BT779671.1.2.3.4" linecode="74_4" length=0.012750000 units=km
New "Line.SBT_33344" phases=4 bus1="BT779671.1.2.3.4" bus2="BT779681.1.2.3.4" linecode="74_4" length=0.007720000 units=km
New "Line.SBT_33345" phases=4 bus1="BT779681.1.2.3.4" bus2="BT779691.1.2.3.4" linecode="74_4" length=0.005680000 units=km
New "Line.SBT_33346" phases=4 bus1="BT779691.1.2.3.4" bus2="BT779701.1.2.3.4" linecode="74_4" length=0.007790000 units=km
New "Line.SBT_33347" phases=4 bus1="BT779701.1.2.3.4" bus2="BT779731.1.2.3.4" linecode="74_4" length=0.014070000 units=km
New "Line.SBT_33348" phases=4 bus1="BT779731.1.2.3.4" bus2="BT779741.1.2.3.4" linecode="74_4" length=0.017110000 units=km
New "Line.SBT_33349" phases=4 bus1="BT779741.1.2.3.4" bus2="BT766031.1.2.3.4" linecode="74_4" length=0.013970000 units=km
New "Line.SBT_33350" phases=4 bus1="BT791061.1.2.3.4" bus2="BT766031.1.2.3.4" linecode="74_4" length=0.037770000 units=km
New "Line.SBT_33351" phases=4 bus1="BT791071.1.2.3.4" bus2="BT791061.1.2.3.4" linecode="74_4" length=0.039340000 units=km
New "Line.SBT_33352" phases=4 bus1="BT791081.1.2.3.4" bus2="BT791071.1.2.3.4" linecode="74_4" length=0.032720000 units=km
New "Line.SBT_33353" phases=4 bus1="BT791091.1.2.3.4" bus2="BT791081.1.2.3.4" linecode="74_4" length=0.035030000 units=km
New "Line.SBT_33354" phases=4 bus1="BT791101.1.2.3.4" bus2="BT791091.1.2.3.4" linecode="74_4" length=0.039160000 units=km
New "Line.SBT_33335" phases=4 bus1="BT277461.1.2.3.4" bus2="BT791021.1.2.3.4" linecode="73_4" length=0.057210000 units=km
New "Line.SBT_33141" phases=4 bus1="BT200971.1.2.3.4" bus2="BT200961.1.2.3.4" linecode="74_4" length=0.034020000 units=km
New "Line.SBT_33142" phases=4 bus1="BT200972.1.2.3.4" bus2="BT200981.1.2.3.4" linecode="74_4" length=0.027420000 units=km
New "Line.SBT_33143" phases=4 bus1="BT200981.1.2.3.4" bus2="BT200991.1.2.3.4" linecode="74_4" length=0.029840000 units=km
New "Line.SBT_33144" phases=4 bus1="BT200991.1.2.3.4" bus2="BT201001.1.2.3.4" linecode="74_4" length=0.034120000 units=km
New "Line.SBT_33145" phases=4 bus1="BT201001.1.2.3.4" bus2="BT606711.1.2.3.4" linecode="74_4" length=0.006600000 units=km
New "Line.SBT_33146" phases=4 bus1="BT606521.1.2.3.4" bus2="BT606711.1.2.3.4" linecode="74_4" length=0.019990000 units=km
New "Line.SBT_33147" phases=4 bus1="BT606551.1.2.3.4" bus2="BT606711.1.2.3.4" linecode="74_4" length=0.024720000 units=km
New "Line.SBT_33148" phases=4 bus1="BT606561.1.2.3.4" bus2="BT606551.1.2.3.4" linecode="74_4" length=0.015420000 units=km
New "Line.SBT_33149" phases=4 bus1="BT606601.1.2.3.4" bus2="BT606561.1.2.3.4" linecode="74_4" length=0.025700000 units=km
New "Line.SBT_33150" phases=4 bus1="BT606711.1.2.3.4" bus2="ET17_3694.1.2.3.4" linecode="74_4" length=0.026900000 units=km
New "Line.SBT_33061" phases=4 bus1="BT344911.1.2.3.4" bus2="BT787951.1.2.3.4" linecode="74_4" length=0.033160000 units=km
New "Line.SBT_33059" phases=2 bus1="BT788001.1.4" bus2="BT243281.1.4" linecode="62_2" length=0.047710000 units=km
New "Line.SBT_33036" phases=4 bus1="BT298601.1.2.3.4" bus2="ET17_2649.1.2.3.4" linecode="92_4" length=0.046810000 units=km
New "Line.SBT_33037" phases=4 bus1="BT309531.1.2.3.4" bus2="BT787601.1.2.3.4" linecode="74_4" length=0.020200000 units=km
New "Line.SBT_33039" phases=2 bus1="BT618331.1.4" bus2="BT788001.1.4" linecode="62_2" length=0.047950000 units=km
New "Line.SBT_33040" phases=4 bus1="BT701911.1.2.3.4" bus2="BT787951.1.2.3.4" linecode="74_4" length=0.033160000 units=km
New "Line.SBT_33041" phases=4 bus1="BT701971.1.2.3.4" bus2="BT215421.1.2.3.4" linecode="74_4" length=0.026600000 units=km
New "Line.SBT_33042" phases=4 bus1="BT701981.1.2.3.4" bus2="BT701971.1.2.3.4" linecode="74_4" length=0.030150000 units=km
New "Line.SBT_33043" phases=4 bus1="BT701991.1.2.3.4" bus2="BT701981.1.2.3.4" linecode="74_4" length=0.032380000 units=km
New "Line.SBT_33044" phases=4 bus1="BT702001.1.2.3.4" bus2="BT701991.1.2.3.4" linecode="74_4" length=0.030530000 units=km
New "Line.SBT_33045" phases=4 bus1="BT787591.1.2.3.4" bus2="BT787681.1.2.3.4" linecode="74_4" length=0.016510000 units=km
New "Line.SBT_33046" phases=4 bus1="BT787601.1.2.3.4" bus2="BT787681.1.2.3.4" linecode="74_4" length=0.019230000 units=km
New "Line.SBT_33047" phases=4 bus1="BT787611.1.2.3.4" bus2="BT309531.1.2.3.4" linecode="74_4" length=0.031140000 units=km
New "Line.SBT_33048" phases=4 bus1="BT787631.1.2.3.4" bus2="ET17_2121.1.2.3.4" linecode="73_4" length=0.045190000 units=km
New "Line.SBT_33049" phases=2 bus1="BT787661.1.4" bus2="BT298591.1.4" linecode="62_2" length=0.054590000 units=km
New "Line.SBT_33050" phases=4 bus1="BT787681.1.2.3.4" bus2="BT279431.1.2.3.4" linecode="74_4" length=0.014460000 units=km
New "Line.SBT_33051" phases=4 bus1="BT787851.1.2.3.4" bus2="ET17_5367.1.2.3.4" linecode="74_4" length=0.022260000 units=km
New "Line.SBT_33053" phases=4 bus1="BT787871.1.2.3.4" bus2="ET17_5367.1.2.3.4" linecode="74_4" length=0.028380000 units=km
New "Line.SBT_33056" phases=4 bus1="BT787901.1.2.3.4" bus2="BT215451.1.2.3.4" linecode="92_4" length=0.036190000 units=km
New "Line.SBT_33057" phases=4 bus1="BT787951.1.2.3.4" bus2="BT787851.1.2.3.4" linecode="74_4" length=0.004990000 units=km
New "Line.SBT_33028" phases=4 bus1="BT200961.1.2.3.4" bus2="BT787631.1.2.3.4" linecode="73_4" length=0.038680000 units=km
New "Line.SBT_33029" phases=4 bus1="BT215421.1.2.3.4" bus2="BT787951.1.2.3.4" linecode="74_4" length=0.033160000 units=km
New "Line.SBT_33030" phases=4 bus1="BT215451.1.2.3.4" bus2="ET17_2649.1.2.3.4" linecode="92_4" length=0.040020000 units=km
New "Line.SBT_33032" phases=4 bus1="BT218841.1.2.3.4" bus2="BT787901.1.2.3.4" linecode="92_4" length=0.050030000 units=km
New "Line.SBT_33033" phases=4 bus1="BT242452.1.2.3.4" bus2="BT787681.1.2.3.4" linecode="74_4" length=0.024770000 units=km
New "Line.SBT_33034" phases=2 bus1="BT243281.1.4" bus2="BT787661.1.4" linecode="62_2" length=0.062620000 units=km
New "Line.SBT_33035" phases=4 bus1="BT298591.1.2.3.4" bus2="BT298601.1.2.3.4" linecode="92_4" length=0.045280000 units=km
New "Line.SBT_32943" phases=4 bus1="BT684262.1.2.3.4" bus2="BT775652.1.2.3.4" linecode="16_4" length=0.024740000 units=km
New "Line.SBT_32944" phases=4 bus1="BT775652.1.2.3.4" bus2="ET17_6026.1.2.3.4" linecode="16_4" length=0.022060000 units=km
New "Line.SBT_32945" phases=4 bus1="BT786321.1.2.3.4" bus2="BT786331.1.2.3.4" linecode="74_4" length=0.041050000 units=km
New "Line.SBT_32946" phases=4 bus1="BT786331.1.2.3.4" bus2="BT620881.1.2.3.4" linecode="74_4" length=0.023330000 units=km
New "Line.SBT_32927" phases=4 bus1="BT255462.1.2.3.4" bus2="BT255471.1.2.3.4" linecode="16_4" length=0.028840000 units=km
New "Line.SBT_32928" phases=4 bus1="BT255471.1.2.3.4" bus2="BT255481.1.2.3.4" linecode="16_4" length=0.030890000 units=km
New "Line.SBT_32929" phases=4 bus1="BT255481.1.2.3.4" bus2="BT684262.1.2.3.4" linecode="16_4" length=0.021120000 units=km
New "Line.SBT_32930" phases=4 bus1="BT255603.1.2.3.4" bus2="BT775652.1.2.3.4" linecode="16_4" length=0.015210000 units=km
New "Line.SBT_32931" phases=4 bus1="BT255611.1.2.3.4" bus2="BT255603.1.2.3.4" linecode="16_4" length=0.046140000 units=km
New "Line.SBT_32933" phases=4 bus1="BT255631.1.2.3.4" bus2="ET17_6026.1.2.3.4" linecode="16_4" length=0.021400000 units=km
New "Line.SBT_32934" phases=4 bus1="BT255641.1.2.3.4" bus2="BT255631.1.2.3.4" linecode="16_4" length=0.025610000 units=km
New "Line.SBT_32935" phases=4 bus1="BT255651.1.2.3.4" bus2="BT255641.1.2.3.4" linecode="16_4" length=0.031300000 units=km
New "Line.SBT_32936" phases=4 bus1="BT255661.1.2.3.4" bus2="BT620881.1.2.3.4" linecode="16_4" length=0.022830000 units=km
New "Line.SBT_32937" phases=4 bus1="BT267431.1.2.3.4" bus2="BT775652.1.2.3.4" linecode="16_4" length=0.021850000 units=km
New "Line.SBT_32938" phases=4 bus1="BT349641.1.2.3.4" bus2="BT581471.1.2.3.4" linecode="16_4" length=0.020120000 units=km
New "Line.SBT_32939" phases=4 bus1="BT581471.1.2.3.4" bus2="BT651851.1.2.3.4" linecode="16_4" length=0.021630000 units=km
New "Line.SBT_32940" phases=4 bus1="BT620881.1.2.3.4" bus2="BT255651.1.2.3.4" linecode="16_4" length=0.036720000 units=km
New "Line.SBT_32941" phases=4 bus1="BT651821.1.2.3.4" bus2="BT651851.1.2.3.4" linecode="97_4" length=0.028480000 units=km
New "Line.SBT_32942" phases=4 bus1="BT651851.1.2.3.4" bus2="BT255611.1.2.3.4" linecode="16_4" length=0.026250000 units=km
New "Line.SBT_32795" phases=4 bus1="BT784662.1.2.3.4" bus2="BT784671.1.2.3.4" linecode="74_4" length=0.037100000 units=km
New "Line.SBT_32796" phases=4 bus1="BT784671.1.2.3.4" bus2="BT784681.1.2.3.4" linecode="74_4" length=0.034570000 units=km
New "Line.SBT_32797" phases=4 bus1="BT784681.1.2.3.4" bus2="BT785101.1.2.3.4" linecode="74_4" length=0.026360000 units=km
New "Line.SBT_32798" phases=4 bus1="BT784691.1.2.3.4" bus2="ET17_4587.1.2.3.4" linecode="74_4" length=0.022060000 units=km
New "Line.SBT_32800" phases=4 bus1="BT785091.1.2.3.4" bus2="BT279202.1.2.3.4" linecode="74_4" length=0.015610000 units=km
New "Line.SBT_32801" phases=4 bus1="BT785101.1.2.3.4" bus2="ET17_4587.1.2.3.4" linecode="74_4" length=0.008430000 units=km
New "Line.SBT_32802" phases=4 bus1="BT785132.1.2.3.4" bus2="BT784661.1.2.3.4" linecode="74_4" length=0.038020000 units=km
New "Line.SBT_32803" phases=4 bus1="BT785141.1.2.3.4" bus2="BT784651.1.2.3.4" linecode="74_4" length=0.044590000 units=km
New "Line.SBT_32774" phases=4 bus1="BT618521.1.2.3.4" bus2="BT785101.1.2.3.4" linecode="65_4" length=0.026360000 units=km
New "Line.SBT_32776" phases=4 bus1="BT622391.1.2.3.4" bus2="BT622422.1.2.3.4" linecode="65_4" length=0.029300000 units=km
New "Line.SBT_32777" phases=4 bus1="BT622401.1.2.3.4" bus2="BT622391.1.2.3.4" linecode="65_4" length=0.026700000 units=km
New "Line.SBT_32778" phases=4 bus1="BT622422.1.2.3.4" bus2="BT784691.1.2.3.4" linecode="74_4" length=0.019170000 units=km
New "Line.SBT_32779" phases=4 bus1="BT622431.1.2.3.4" bus2="BT622401.1.2.3.4" linecode="65_4" length=0.034690000 units=km
New "Line.SBT_32780" phases=4 bus1="BT622441.1.2.3.4" bus2="BT622431.1.2.3.4" linecode="65_4" length=0.024320000 units=km
New "Line.SBT_32781" phases=4 bus1="BT622451.1.2.3.4" bus2="BT622441.1.2.3.4" linecode="65_4" length=0.022220000 units=km
New "Line.SBT_32782" phases=4 bus1="BT622501.1.2.3.4" bus2="BT622451.1.2.3.4" linecode="65_4" length=0.024540000 units=km
New "Line.SBT_32783" phases=4 bus1="BT768851.1.2.3.4" bus2="BT785141.1.2.3.4" linecode="74_4" length=0.039190000 units=km
New "Line.SBT_32784" phases=4 bus1="BT784571.1.2.3.4" bus2="BT785091.1.2.3.4" linecode="74_4" length=0.009140000 units=km
New "Line.SBT_32785" phases=4 bus1="BT784581.1.2.3.4" bus2="BT784571.1.2.3.4" linecode="74_4" length=0.035280000 units=km
New "Line.SBT_32786" phases=4 bus1="BT784591.1.2.3.4" bus2="BT784581.1.2.3.4" linecode="74_4" length=0.036880000 units=km
New "Line.SBT_32787" phases=4 bus1="BT784601.1.2.3.4" bus2="BT784591.1.2.3.4" linecode="74_4" length=0.033710000 units=km
New "Line.SBT_32788" phases=4 bus1="BT784602.1.2.3.4" bus2="BT784611.1.2.3.4" linecode="74_4" length=0.038970000 units=km
New "Line.SBT_32789" phases=4 bus1="BT784611.1.2.3.4" bus2="BT784621.1.2.3.4" linecode="74_4" length=0.036990000 units=km
New "Line.SBT_32790" phases=4 bus1="BT784621.1.2.3.4" bus2="BT784661.1.2.3.4" linecode="74_4" length=0.047770000 units=km
New "Line.SBT_32791" phases=4 bus1="BT784631.1.2.3.4" bus2="ET17_3687.1.2.3.4" linecode="74_4" length=0.033570000 units=km
New "Line.SBT_32793" phases=4 bus1="BT784651.1.2.3.4" bus2="ET17_3687.1.2.3.4" linecode="74_4" length=0.042920000 units=km
New "Line.SBT_32794" phases=4 bus1="BT784661.1.2.3.4" bus2="BT784631.1.2.3.4" linecode="74_4" length=0.028290000 units=km
New "Line.SBT_32769" phases=4 bus1="BT279212.1.2.3.4" bus2="BT784581.1.2.3.4" linecode="74_4" length=0.021560000 units=km
New "Line.SBT_32770" phases=4 bus1="BT310862.1.2.3.4" bus2="BT768851.1.2.3.4" linecode="74_4" length=0.036140000 units=km
New "Line.SBT_32771" phases=4 bus1="BT345063.1.2.3.4" bus2="BT785091.1.2.3.4" linecode="74_4" length=0.016710000 units=km
New "Line.SBT_32772" phases=2 bus1="BT359241.1.4" bus2="BT785132.1.4" linecode="62_2" length=0.054620000 units=km
New "Line.SBT_32773" phases=4 bus1="BT479792.1.2.3.4" bus2="BT785091.1.2.3.4" linecode="74_4" length=0.041520000 units=km
New "Line.SBT_32168" phases=2 bus1="BT278261.1.4" bus2="ET17_5951.1.4" linecode="62_2" length=0.098330000 units=km
New "Line.SBT_32169" phases=2 bus1="BT278262.1.4" bus2="BT278241.1.4" linecode="62_2" length=0.104690000 units=km
New "Line.SBT_32171" phases=2 bus1="BT778331.2.4" bus2="ET17_5951.2.4" linecode="60_2" length=0.054960000 units=km
New "Line.SBT_32136" phases=4 bus1="BT267432.1.2.3.4" bus2="ET17_3253.1.2.3.4" linecode="16_4" length=0.041180000 units=km
New "Line.SBT_31957" phases=2 bus1="BT774061.1.4" bus2="BT366071.1.4" linecode="62_2" length=0.116780000 units=km
New "Line.SBT_31958" phases=2 bus1="BT774081.1.4" bus2="BT774061.1.4" linecode="62_2" length=0.066840000 units=km
New "Line.SBT_31378" phases=4 bus1="BT768631.1.2.3.4" bus2="ET17_5869.1.2.3.4" linecode="74_4" length=0.029060000 units=km
New "Line.SBT_31379" phases=4 bus1="BT768621.1.2.3.4" bus2="BT768631.1.2.3.4" linecode="74_4" length=0.029640000 units=km
New "Line.SBT_31380" phases=4 bus1="BT768611.1.2.3.4" bus2="BT768621.1.2.3.4" linecode="74_4" length=0.029420000 units=km
New "Line.SBT_31381" phases=4 bus1="BT768601.1.2.3.4" bus2="BT768611.1.2.3.4" linecode="74_4" length=0.033660000 units=km
New "Line.SBT_31382" phases=4 bus1="BT768591.1.2.3.4" bus2="BT768601.1.2.3.4" linecode="74_4" length=0.028830000 units=km
New "Line.SBT_31383" phases=4 bus1="BT769361.1.2.3.4" bus2="BT768631.1.2.3.4" linecode="74_4" length=0.019680000 units=km
New "Line.SBT_31384" phases=4 bus1="BT769371.1.2.3.4" bus2="BT769361.1.2.3.4" linecode="74_4" length=0.024730000 units=km
New "Line.SBT_31385" phases=4 bus1="BT769381.1.2.3.4" bus2="BT769371.1.2.3.4" linecode="74_4" length=0.025620000 units=km
New "Line.SBT_31386" phases=4 bus1="BT769391.1.2.3.4" bus2="BT769381.1.2.3.4" linecode="74_4" length=0.026370000 units=km
New "Line.SBT_31387" phases=4 bus1="BT769401.1.2.3.4" bus2="BT769391.1.2.3.4" linecode="74_4" length=0.033420000 units=km
New "Line.SBT_31388" phases=4 bus1="BT769411.1.2.3.4" bus2="BT769401.1.2.3.4" linecode="74_4" length=0.026030000 units=km
New "Line.SBT_31389" phases=4 bus1="BT769421.1.2.3.4" bus2="BT769411.1.2.3.4" linecode="74_4" length=0.027640000 units=km
New "Line.SBT_31390" phases=4 bus1="BT769341.1.2.3.4" bus2="ET17_5869.1.2.3.4" linecode="74_4" length=0.044880000 units=km
New "Line.SBT_31391" phases=4 bus1="BT769351.1.2.3.4" bus2="BT769341.1.2.3.4" linecode="74_4" length=0.030800000 units=km
New "Line.SBT_31392" phases=4 bus1="BT769461.1.2.3.4" bus2="BT769341.1.2.3.4" linecode="74_4" length=0.022550000 units=km
New "Line.SBT_31393" phases=4 bus1="BT769451.1.2.3.4" bus2="BT769461.1.2.3.4" linecode="74_4" length=0.024690000 units=km
New "Line.SBT_31394" phases=4 bus1="BT769441.1.2.3.4" bus2="BT769451.1.2.3.4" linecode="74_4" length=0.028340000 units=km
New "Line.SBT_31395" phases=4 bus1="BT769431.1.2.3.4" bus2="BT769441.1.2.3.4" linecode="74_4" length=0.037740000 units=km
New "Line.SBT_31159" phases=4 bus1="BT766991.1.2.3.4" bus2="ET17_5803.1.2.3.4" linecode="73_4" length=0.059660000 units=km
New "Line.SBT_31160" phases=4 bus1="BT767001.1.2.3.4" bus2="BT766991.1.2.3.4" linecode="73_4" length=0.047940000 units=km
New "Line.SBT_31156" phases=4 bus1="BT670651.1.2.3.4" bus2="BT766972.1.2.3.4" linecode="73_4" length=0.027400000 units=km
New "Line.SBT_31157" phases=4 bus1="BT766972.1.2.3.4" bus2="ET17_5803.1.2.3.4" linecode="73_4" length=0.059710000 units=km
New "Line.SBT_31068" phases=4 bus1="BT766001.1.2.3.4" bus2="BT652622.1.2.3.4" linecode="74_4" length=0.051190000 units=km
New "Line.SBT_31070" phases=4 bus1="BT766021.1.2.3.4" bus2="ET17_5814.1.2.3.4" linecode="74_4" length=0.054050000 units=km
New "Line.SBT_31071" phases=4 bus1="BT766031.1.2.3.4" bus2="BT766021.1.2.3.4" linecode="74_4" length=0.056490000 units=km
New "Line.SBT_31074" phases=4 bus1="BT766181.1.2.3.4" bus2="ET17_5814.1.2.3.4" linecode="74_4" length=0.041000000 units=km
New "Line.SBT_31075" phases=4 bus1="BT766191.1.2.3.4" bus2="BT766181.1.2.3.4" linecode="74_4" length=0.047000000 units=km
New "Line.SBT_31051" phases=3 bus1="BT279171.1.2.4" bus2="BT765961.1.2.4" linecode="59_3" length=0.053030000 units=km
New "Line.SBT_31052" phases=3 bus1="BT279181.1.2.4" bus2="BT279171.1.2.4" linecode="44_3" length=0.070290000 units=km
New "Line.SBT_31053" phases=2 bus1="BT559591.1.4" bus2="BT279181.1.4" linecode="62_2" length=0.085730000 units=km
New "Line.SBT_31054" phases=2 bus1="BT559601.1.4" bus2="BT559591.1.4" linecode="62_2" length=0.069380000 units=km
New "Line.SBT_31055" phases=2 bus1="BT765951.1.4" bus2="ET17_771.1.4" linecode="60_2" length=0.100740000 units=km
New "Line.SBT_31056" phases=3 bus1="BT765961.1.2.4" bus2="ET17_5796.1.2.4" linecode="59_3" length=0.061430000 units=km
New "Line.SBT_31058" phases=2 bus1="BT765981.1.4" bus2="BT765951.1.4" linecode="60_2" length=0.081620000 units=km
New "Line.SBT_31064" phases=4 bus1="BT441302.1.2.3.4" bus2="BT652622.1.2.3.4" linecode="73_4" length=0.062970000 units=km
New "Line.SBT_31065" phases=4 bus1="BT652622.1.2.3.4" bus2="ET17_5814.1.2.3.4" linecode="74_4" length=0.049500000 units=km
New "Line.SBT_31066" phases=4 bus1="BT718152.1.2.3.4" bus2="BT766001.1.2.3.4" linecode="74_4" length=0.053940000 units=km
New "Line.SBT_30888" phases=4 bus1="BT764811.1.2.3.4" bus2="ET17_4516.1.2.3.4" linecode="74_4" length=0.029480000 units=km
New "Line.SBT_30889" phases=4 bus1="BT764821.1.2.3.4" bus2="BT764811.1.2.3.4" linecode="74_4" length=0.056910000 units=km
New "Line.SBT_30890" phases=4 bus1="BT764831.1.2.3.4" bus2="BT764821.1.2.3.4" linecode="74_4" length=0.038690000 units=km
New "Line.SBT_30512" phases=4 bus1="BT279342.1.2.3.4" bus2="BT279331.1.2.3.4" linecode="74_4" length=0.019430000 units=km
New "Line.SBT_30513" phases=4 bus1="BT279351.1.2.3.4" bus2="BT279342.1.2.3.4" linecode="73_4" length=0.051110000 units=km
New "Line.SBT_30515" phases=4 bus1="BT310841.1.2.3.4" bus2="ET17_5707.1.2.3.4" linecode="74_4" length=0.024170000 units=km
New "Line.SBT_30511" phases=4 bus1="BT279191.1.2.3.4" bus2="BT279342.1.2.3.4" linecode="73_4" length=0.035990000 units=km
New "Line.SBT_29581" phases=4 bus1="BT287652.1.2.3.4" bus2="ET17_492.1.2.3.4" linecode="73_4" length=0.034770000 units=km
New "Line.SBT_29366" phases=3 bus1="BT478941.1.2.4" bus2="BT750991.1.2.4" linecode="59_3" length=0.051530000 units=km
New "Line.SBT_29367" phases=3 bus1="BT370722.1.2.4" bus2="BT750991.1.2.4" linecode="59_3" length=0.129190000 units=km
New "Line.SBT_29368" phases=3 bus1="BT250801.1.2.4" bus2="BT370722.1.2.4" linecode="59_3" length=0.081740000 units=km
New "Line.SBT_29369" phases=3 bus1="BT250791.1.2.4" bus2="BT250801.1.2.4" linecode="59_3" length=0.059680000 units=km
New "Line.SBT_29365" phases=3 bus1="BT750981.1.2.4" bus2="ET17_491.1.2.4" linecode="59_3" length=0.085950000 units=km
New "Line.SBT_18477" phases=4 bus1="BT297621.1.2.3.4" bus2="BT297611.1.2.3.4" linecode="75_4" length=0.036060000 units=km
New "Line.SBT_7311" phases=4 bus1="BT272161.1.2.3.4" bus2="ET17_1842.1.2.3.4" linecode="73_4" length=0.111100000 units=km
New "Line.SBT_7452" phases=4 bus1="BT239511.1.2.3.4" bus2="ET17_787.1.2.3.4" linecode="97_4" length=0.099720000 units=km
New "Line.SBT_8042" phases=4 bus1="BT200941.1.2.3.4" bus2="BT200931.1.2.3.4" linecode="73_4" length=0.027750000 units=km
New "Line.SBT_23113" phases=4 bus1="BT269221.1.2.3.4" bus2="BT363331.1.2.3.4" linecode="73_4" length=0.027210000 units=km
New "Line.SBT_23241" phases=4 bus1="BT298611.1.2.3.4" bus2="ET17_5409.1.2.3.4" linecode="58_4" length=0.024850000 units=km
New "Line.SBT_22764" phases=4 bus1="BT366071.1.2.3.4" bus2="BT239551.1.2.3.4" linecode="97_4" length=0.051240000 units=km
New "Line.SBT_15903" phases=4 bus1="BT618631.1.2.3.4" bus2="BT618521.1.2.3.4" linecode="58_4" length=0.026810000 units=km
New "Line.SBT_15486" phases=4 bus1="BT661151.1.2.3.4" bus2="ET17_4269.1.2.3.4" linecode="74_4" length=0.025770000 units=km
New "Line.SBT_15461" phases=4 bus1="BT549631.1.2.3.4" bus2="BT549641.1.2.3.4" linecode="74_4" length=0.016810000 units=km
New "Line.SBT_9857" phases=2 bus1="BT632381.1.4" bus2="BT632371.1.4" linecode="62_2" length=0.073250000 units=km
New "Line.SBT_8642" phases=4 bus1="BT297541.1.2.3.4" bus2="ET17_1690.1.2.3.4" linecode="75_4" length=0.027780000 units=km
...
